Version 4
SHEET 1 2212 680
WIRE 272 -256 128 -256
WIRE 128 -224 128 -256
WIRE 272 -224 272 -256
WIRE 128 -112 128 -144
WIRE 128 -112 80 -112
WIRE 176 -112 128 -112
WIRE 80 -64 80 -112
WIRE 176 32 176 -112
WIRE -112 96 -192 96
WIRE 48 96 32 96
WIRE 80 96 80 16
WIRE 80 96 48 96
WIRE 128 96 80 96
WIRE 176 144 176 128
WIRE 208 144 176 144
WIRE 320 144 208 144
WIRE 480 144 384 144
WIRE 576 144 480 144
WIRE 704 144 656 144
WIRE 80 160 80 96
WIRE 704 160 704 144
WIRE 208 176 208 144
WIRE 480 176 480 144
WIRE -192 304 -192 96
WIRE 80 304 80 240
WIRE 80 304 -192 304
WIRE 160 304 80 304
WIRE 208 304 208 256
WIRE 208 304 160 304
WIRE 480 304 480 256
WIRE 480 304 208 304
WIRE 704 304 704 240
WIRE 704 304 480 304
WIRE 160 352 160 304
FLAG 160 352 0
FLAG 272 -224 0
FLAG 480 144 Vo
FLAG 48 96 Vi
FLAG -192 96 Vs
SYMBOL cap 32 80 R90
WINDOW 0 0 32 VBottom 2
WINDOW 3 32 32 VTop 2
SYMATTR InstName C1
SYMATTR Value 1µ
SYMBOL res 64 144 R0
SYMATTR InstName R1
SYMATTR Value 2.7Meg
SYMBOL res 64 -80 R0
SYMATTR InstName R2
SYMATTR Value 4.7Meg
SYMBOL res 464 160 R0
SYMATTR InstName R3
SYMATTR Value 560
SYMBOL cap 384 128 R90
WINDOW 0 0 32 VBottom 2
WINDOW 3 32 32 VTop 2
SYMATTR InstName C2
SYMATTR Value 1µ
SYMBOL njf 128 32 R0
SYMATTR InstName J1
SYMATTR Value MPF102
SYMBOL Misc\\signal 704 144 R0
WINDOW 123 24 132 Left 2
WINDOW 39 0 0 Left 0
SYMATTR Value2 AC 1
SYMATTR InstName V1
SYMBOL res 192 160 R0
SYMATTR InstName R4
SYMATTR Value 330
SYMBOL res -16 80 R90
WINDOW 0 0 56 VBottom 2
WINDOW 3 32 56 VTop 2
SYMATTR InstName R5
SYMATTR Value 1k
SYMBOL voltage 128 -128 R180
WINDOW 0 24 96 Left 2
WINDOW 3 24 16 Left 2
WINDOW 123 0 0 Left 0
WINDOW 39 0 0 Left 0
SYMATTR InstName V2
SYMATTR Value 15
SYMBOL res 672 128 R90
WINDOW 0 0 56 VBottom 2
WINDOW 3 32 56 VTop 2
SYMATTR InstName R6
SYMATTR Value 0
TEXT -208 480 Left 2 !.model MPF102   NJF(Beta=1.04m Betatce=-.5 Rd=1 Rs=1 Lambda=2m Vto=-3.41 Vtotc=-2.5m Is=33.57f Isr=322.4f N=1 Nr=2 Xti=3 Alpha=311.7u Vk=243.6 Cgd=1.6p M=.3622 Pb=1 Fc=.5 Cgs=2.414p Kf=11.73E-18 Af=1)
TEXT -224 504 Left 2 !.ac dec 1000 1 10meg
